testData/ACTIVSg2000/texas2000_hr_4375_v30_mod.raw
0,   100.00, 30, 0, 1,  60.00     / PSS(R)E 30 RAW created by rawd30  THU, JUL 09 2020   9:20
THIS IS A SYNTHETIC POWER SYSTEM MODEL THAT DOES NOT REPRESE
DATA RESEARCH PROJECT AND CONTAINS NO CEII.
  1004,'O DONNEL    ', 230.0000,2,    -1.487,    27.025,   1,   9,1.02817, -38.0177,   1
  1021,'BIG SPRI    ',  13.8000,2,     1.184,    19.793,   1,   9,1.00861, -39.0468,   1
  1023,'O DONNEL    ',  13.8000,2,    -0.475,     6.303,   1,   9,1.01000, -33.7591,   1
  1026,'BIG SPRI    ',  13.8000,2,    -0.303,    11.522,   1,   9,1.00451, -37.9547,   1
  1033,'MCCAMEY     ', 230.0000,2,     1.656,   119.776,   1,   9,1.00797, -43.9484,   1
  1039,'FORT STO    ',  22.0000,2,     1.884,    17.697,   1,   9,1.00060, -40.1997,   1
  1042,'FORSAN 1    ',  13.8000,2,     0.770,    21.525,   1,   9,1.00000, -36.5445,   1
  1048,'MONAHANS    ',  18.0000,2,    -0.019,    31.573,   1,   9,1.00000, -37.6781,   1
  1049,'MONAHANS    ',  18.0000,2,     0.474,    17.632,   1,   9,1.00000, -34.8178,   1
  1053,'MONAHANS    ', 230.0000,2,     0.570,    26.587,   1,   9,1.00970, -41.6413,   1
  1057,'LENORAH     ',  18.0000,2,     3.419,    39.002,   1,   9,1.00714, -40.0397,   1
  1063,'BIG SPRI    ',  13.8000,2,     0.384,    21.494,   1,   9,1.02396, -38.1886,   1
  1066,'BIG SPRI    ',  13.8000,2,     0.503,    19.803,   1,   9,1.00000, -36.7500,   1
  1070,'IRAAN 1     ',  13.8000,2,     1.371,    24.010,   1,   9,1.04000, -41.7144,   1
  1072,'ODESSA 1    ',  18.0000,3,     0.020,    22.043,   1,   9,1.01000, -43.3147,   1
  1073,'ODESSA 1    ',  18.0000,2,    -0.534,    14.445,   1,   9,1.01000, -41.1352,   1
  1074,'ODESSA 1    ',  18.0000,2,     0.251,    15.147,   1,   9,1.01000, -41.3632,   1
  1075,'ODESSA 1    ',  18.0000,2,     0.479,    18.928,   1,   9,1.01000, -42.1678,   1
  1076,'ODESSA 1    ',  18.0000,2,     1.306,    38.214,   1,   9,1.01000, -43.7880,   1
  1077,'ODESSA 1    ',  18.0000,2,     0.149,    15.653,   1,   9,1.01000, -41.4882,   1
  1081,'ODESSA 1    ', 230.0000,2,     0.651,    51.917,   1,   9,1.01234, -42.6674,   1
  1082,'FORT STO    ', 115.0000,2,    -4.828,    48.110,   1,   9,1.01753, -41.8128,   1
  1084,'BIG SPRI    ', 115.0000,2,    -4.590,    64.598,   1,   9,1.03728, -42.8582,   1
  2004,'SAVOY 2     ',  13.8000,2,     0.421,    79.062,   2,  11,1.02474, -49.6368,   1
  2005,'SAVOY 3     ',  13.8000,2,     0.073,    67.618,   2,  11,1.02376, -49.4750,   1
  2006,'SAVOY 4     ',  13.8000,2,     0.298,    43.264,   2,  11,1.02000, -48.8525,   1
  2013,'PANHANDL    ',  18.0000,2,     0.983,    14.332,   2,  10,1.04609, -37.1783,   1
  2019,'PANHANDL    ',  20.0000,2,    -0.748,   -25.103,   2,  10,1.04000, -36.8317,   1
  2024,'PARIS 2     ',  13.8000,2,     0.667,    46.262,   2,  11,1.02809, -49.5512,   1
  2042,'PANHANDL    ',  18.0000,2,     0.292,     3.963,   2,  10,1.03288, -34.2984,   1
  2057,'WICHITA     ',  18.0000,3,    10.270,   135.442,   2,  11,0.99000, -43.8380,   1
  2059,'WHITE DE    ',  13.8000,2,     0.124,     1.645,   2,  10,1.03121, -33.1576,   1
  2062,'VERNON 1    ',  18.0000,2,     0.783,    44.814,   2,  10,1.02000, -42.4408,   1
  2071,'ARCHER 2    ',  18.0000,2,    -0.062,    17.756,   2,  11,1.00367, -43.7945,   1
  2078,'MUENSTER    ',  13.8000,2,     1.890,    45.117,   2,  11,1.02000, -51.7485,   1
  2100,'RALLS 1     ',  18.0000,2,     0.216,    -5.113,   2,  10,1.02116, -35.8822,   1
  2115,'PARIS 1     ',  13.8000,2,     0.258,    28.190,   2,  11,1.02496, -48.9558,   1
  2116,'PARIS 1     ',  13.8000,2,     0.849,    54.088,   2,  11,1.02854, -49.5155,   1
  2117,'PARIS 1     ',  13.8000,2,     0.475,    24.345,   2,  11,1.02348, -48.7755,   1
  2118,'PARIS 1     ',  13.8000,2,     0.356,    21.984,   2,  11,1.02256, -48.6282,   1
  2119,'PARIS 1     ',  13.8000,2,     0.677,    44.438,   2,  11,1.02768, -49.3841,   1
  2120,'PARIS 1     ',  13.8000,2,     0.329,    22.875,   2,  11,1.02301, -48.6859,   1
  2123,'PANHANDL    ', 161.0000,2,    -1.720,    20.220,   2,  10,1.04039, -35.2601,   1
  2127,'MIAMI 0     ', 500.0000,2,   -17.566,   400.855,   2,  10,1.05503, -38.8452,   1
  3017,'BLACKWEL    ',  18.0000,2,     1.855,    15.951,   3,  27,1.01000, -41.1928,   1
  3020,'CHRISTOV    ',  13.8000,2,     5.820,    71.793,   3,  27,1.03000, -48.2418,   1
  3028,'ABILENE     ',  18.0000,2,     0.189,    27.011,   3,  27,1.04000, -45.0412,   1
  3034,'SNYDER 1    ',  22.0000,2,    -0.263,     5.807,   3,  27,1.03000, -35.8279,   1
  3039,'ROSCOE 2    ',  13.8000,2,     0.737,    19.227,   3,  27,1.04000, -40.3590,   1
  3045,'SILVER 4    ',  13.8000,2,     0.301,     9.626,   3,  27,1.04000, -38.7799,   1
  3048,'ROSCOE 5    ', 500.0000,2,    -9.162,   821.564,   3,  27,1.05053, -47.1169,   1
  3055,'WINGATE     ',  13.8000,2,     0.669,    24.689,   3,  27,1.04000, -42.2327,   1
  3056,'WINGATE     ',  13.8000,2,     0.410,    13.072,   3,  27,1.04000, -41.2500,   1
  3057,'WINGATE     ',  13.8000,2,     0.283,    13.463,   3,  27,1.04000, -41.3106,   1
  3060,'STERLING    ',  18.0000,2,     0.269,     7.100,   3,  27,1.04000, -39.8112,   1
  3061,'STERLING    ',  18.0000,2,     0.395,     9.944,   3,  27,1.04000, -40.6386,   1
  3062,'STERLING    ',  18.0000,2,     0.550,    19.683,   3,  27,1.04000, -41.6610,   1
  3063,'STERLING    ',  18.0000,2,     0.398,    13.839,   3,  27,1.04000, -41.2201,   1
  3068,'TRENT 1     ',  20.0000,2,     0.319,    13.853,   3,  27,1.04000, -40.9421,   1
  3071,'NOLAN 1     ',  24.0000,2,     0.048,     6.021,   3,  27,1.00672, -41.1271,   1
  3081,'HERMLEIG    ',  20.0000,2,     0.358,     9.828,   3,  27,1.04000, -39.0069,   1
  3084,'MERKEL 1    ',  13.8000,2,     0.323,     6.675,   3,  27,1.00133, -39.7208,   1
  3092,'ABILENE     ',  13.8000,2,     0.678,    14.840,   3,  27,1.04000, -42.7530,   1
  3095,'MERKEL 2    ',  18.0000,2,     0.193,     9.786,   3,  27,1.04000, -41.3782,   1
  3098,'FLUVANNA    ',  13.8000,2,     0.172,     4.226,   3,  27,1.04000, -34.6968,   1
  3106,'BUCHANAN    ',  13.2000,3,    -0.602,    20.104,   3,  28,1.00000, -51.0582,   1
  3118,'SYNDER 2    ',  13.8000,2,     0.314,    12.960,   3,  27,1.00219, -36.8870,   1
  3122,'ROSCOE 1    ',  18.0000,2,     0.301,     3.684,   3,  27,1.00000, -36.0349,   1
  3127,'SWEETWAT    ', 115.0000,2,    -2.127,    26.132,   3,  27,1.01855, -39.9882,   1
  3129,'ROSCOE 3    ', 115.0000,2,    -3.803,    30.894,   3,  27,1.02357, -39.6355,   1
  3131,'TUSOCOLA    ', 115.0000,2,    -6.342,    61.220,   3,  27,1.02000, -43.4249,   1
  4010,'SARITA 3    ',  20.0000,2,    -0.208,    40.919,   4,  21,1.03000, -88.1767,   1
  4026,'CHRISTIN    ',  13.8000,2,     5.113,    85.072,   4,  20,1.03000, -61.9697,   1
  4028,'FANNIN 0    ', 230.0000,1,     0.000,     0.000,   4,  21,1.01181, -57.9444,   1
  4029,'FANNIN 1    ', 115.0000,1,     0.646,    48.429,   4,  21,1.01260, -59.6167,   1
  4030,'FANNIN 2    ',  13.8000,3,     0.000,     0.000,   4,  21,1.01000, -56.4150,   1
  4047,'FALCON H    ',  13.8000,2,     0.337,    67.864,   4,  19,1.02000, -85.5851,   1
  4050,'SEBASTIA    ',  13.8000,2,     0.513,    15.141,   4,  19,1.00987, -98.7793,   1
  4058,'GREGORY     ',  13.8000,2,     0.122,     7.432,   4,  21,1.03000, -78.7424,   1
  4059,'GREGORY     ',  13.8000,2,    -0.002,     8.781,   4,  21,1.03000, -78.9596,   1
  4060,'GREGORY     ',  13.8000,2,     0.074,     5.151,   4,  21,1.03000, -78.1355,   1
  4061,'GREGORY     ',  13.8000,2,     0.105,     7.547,   4,  21,1.03000, -78.4985,   1
  4062,'GREGORY     ',  13.8000,2,    -0.002,     6.035,   4,  21,1.03000, -78.0991,   1
  4063,'GREGORY     ',  13.8000,2,     0.197,     7.421,   4,  21,1.03000, -78.4663,   1
  4082,'CORPUS C    ',  13.8000,2,     0.607,    16.760,   4,  21,1.04000, -84.1545,   1
  4083,'CORPUS C    ',  13.8000,2,     0.661,    18.193,   4,  21,1.04000, -84.3096,   1
  4084,'CORPUS C    ',  13.8000,2,     1.495,    33.361,   4,  21,1.04000, -85.1315,   1
  4085,'CORPUS C    ',  13.8000,2,     1.375,    38.919,   4,  21,1.04000, -83.7528,   1
  4105,'TAFT 2 1    ',  18.0000,2,     0.999,    43.136,   4,  21,1.01000, -82.6767,   1
  4115,'LAREDO 1    ',  13.8000,2,     7.453,   129.317,   4,  20,1.04000, -80.5395,   1
  4116,'LAREDO 1    ',  13.8000,2,     5.879,   122.962,   4,  20,1.04000, -80.4864,   1
  4142,'SARITA 1    ',  13.8000,2,     6.598,   104.336,   4,  21,1.04000, -86.9933,   1
  4153,'ARMSTRON    ',  18.0000,2,    12.497,   217.000,   4,  21,1.04000, -89.2469,   1
  4160,'CORPUS C    ',  13.8000,2,     1.524,    42.511,   4,  21,1.03000, -81.6985,   1
  4161,'CORPUS C    ',  13.8000,2,     0.722,    17.345,   4,  21,1.03000, -80.5639,   1
  4162,'CORPUS C    ',  13.8000,2,     0.368,    17.528,   4,  21,1.03000, -80.5906,   1
  4166,'SARITA 2    ',  13.8000,2,    -0.161,    32.848,   4,  21,1.01358, -87.5877,   1
  4173,'REFUGIO     ', 115.0000,1,    -1.682,    20.986,   4,  21,0.98890, -68.4355,   1
  4177,'BRUNI 1     ',  13.8000,2,    -2.290,    52.582,   4,  20,1.04000, -81.8348,   1
  4181,'TAFT 1 0    ', 230.0000,2,    -2.108,    80.185,   4,  21,1.01606, -78.6746,   1
  4183,'SAN PERL    ', 230.0000,2,    -2.165,   226.062,   4,  19,1.02536, -91.6278,   1
  4192,'BROWNSVI    ', 230.0000,2,     8.934,   336.575,   4,  19,1.02000, -94.1900,   1
  4194,'SEBASTIA    ', 115.0000,2,   -15.859,   354.779,   4,  19,1.02000,-100.4884,   1
  5020,'JACKSBOR    ',  13.8000,2,     1.258,    38.338,   5,  12,1.02917, -46.8546,   1
  5037,'DALLAS 1    ',  13.2000,2,     1.423,    89.600,   5,  16,1.02494, -49.6707,   1
  5038,'DALLAS 1    ',  13.2000,2,     1.551,    86.815,   5,  16,1.02475, -49.6237,   1
  5039,'DALLAS 1    ',  13.2000,2,     2.713,   197.386,   5,  16,1.02728, -50.4748,   1
  5040,'DALLAS 1    ',  13.2000,2,     0.621,    66.314,   5,  16,1.02357, -49.1496,   1
  5041,'DALLAS 1    ',  13.2000,2,     0.938,    95.408,   5,  16,1.02536, -49.7595,   1
  5042,'DALLAS 1    ',  13.2000,2,     1.504,    81.009,   5,  16,1.02439, -49.5145,   1
  5057,'GRAHAM 2    ',  13.8000,2,     0.387,    70.904,   5,  12,1.02868, -46.1305,   1
  5058,'GRAHAM 3    ',  13.8000,2,     0.328,    48.694,   5,  12,1.02644, -45.5250,   1
  5067,'ARLINGTO    ',  13.8000,2,     2.839,   136.394,   5,  17,1.03000, -49.3901,   1
  5068,'ARLINGTO    ',  13.8000,2,     2.076,   129.880,   5,  17,1.03000, -49.3154,   1
  5069,'ARLINGTO    ',  13.8000,2,     1.656,   122.100,   5,  17,1.03000, -49.2163,   1
  5089,'CLIFTON     ',  13.8000,2,     0.242,    27.255,   5,  18,1.01000, -54.1947,   1
  5166,'DENTON 1    ',  13.8000,2,     2.249,    76.160,   5,  17,1.04000, -50.5825,   1
  5198,'BRYSON 1    ',  18.0000,2,     0.268,    79.610,   5,  12,1.03046, -47.7084,   1
  5206,'POOLVILL    ',  13.8000,2,     0.228,    48.369,   5,  12,1.02726, -47.1934,   1
  5207,'POOLVILL    ',  13.8000,2,     0.570,    89.977,   5,  12,1.02976, -47.9126,   1
  5208,'POOLVILL    ',  13.8000,2,     0.513,    71.527,   5,  12,1.02899, -47.6976,   1
  5238,'OLNEY 1     ',  18.0000,2,     4.666,   137.379,   5,  12,1.03089, -46.4583,   1
  5243,'GOLDTHWA    ',  13.8000,2,     3.890,    87.463,   5,  18,1.03741, -52.5936,   1
  5262,'GLEN ROS    ',  13.8000,2,     2.174,   155.262,   5,  18,1.02091, -43.5279,   1
  5263,'GLEN ROS    ',  13.8000,2,     3.595,   217.573,   5,  18,1.02357, -44.7401,   1
  5281,'TEMPLE 1    ',  13.8000,2,     1.237,    70.265,   5,  13,1.02346, -53.2158,   1
  5282,'TEMPLE 1    ',  13.8000,2,     1.302,    83.086,   5,  13,1.02438, -53.3497,   1
  5283,'TEMPLE 1    ',  13.8000,2,     0.772,   108.608,   5,  13,1.02561, -53.5210,   1
  5298,'MCKINNEY    ',  13.8000,2,     2.701,   127.474,   5,  16,1.04000, -51.3896,   1
  5299,'MCKINNEY    ',  13.8000,2,     1.336,    61.935,   5,  16,1.04000, -51.1793,   1
  5300,'MCKINNEY    ',  13.8000,2,     1.606,    74.637,   5,  16,1.04000, -51.2489,   1
  5302,'MCKINNEY    ',  13.8000,2,     1.411,    78.236,   5,  16,1.04000, -50.2835,   1
  5303,'MCKINNEY    ',  13.8000,2,     2.320,   104.889,   5,  16,1.04000, -50.6143,   1
  5319,'GRANBURY    ',  13.2000,2,     1.291,    63.797,   5,  18,1.02357, -47.6464,   1
  5320,'GRANBURY    ',  13.2000,2,     0.630,    57.728,   5,  18,1.02314, -47.5571,   1
  5321,'GRANBURY    ',  13.2000,2,     1.237,    66.686,   5,  18,1.02383, -47.6814,   1
  5324,'DALLAS 2    ',  13.8000,2,     1.132,    72.597,   5,  17,1.04000, -49.1481,   1
  5325,'DALLAS 2    ',  13.8000,2,     1.657,    72.561,   5,  17,1.04000, -49.1446,   1
  5326,'DALLAS 2    ',  13.8000,2,     2.910,   211.255,   5,  17,1.04000, -50.6298,   1
  5343,'LEWISVIL    ',  13.8000,2,     0.893,    48.888,   5,  17,1.04000, -51.7564,   1
  5360,'RIESEL 1    ',  13.8000,3,     0.848,    82.365,   5,  13,1.01000, -50.1820,   1
  5364,'BRIDGEPO    ',  13.8000,2,    -0.226,    85.461,   5,  12,1.02877, -48.1868,   1
  5365,'BRIDGEPO    ',  13.8000,2,    -0.043,    41.064,   5,  12,1.02633, -47.4968,   1
  5366,'BRIDGEPO    ',  13.8000,2,    -0.173,    36.101,   5,  12,1.02577, -47.3128,   1
  5367,'BRIDGEPO    ',  13.8000,2,    -0.078,    37.199,   5,  12,1.02586, -47.3581,   1
  5368,'BRIDGEPO    ',  13.8000,2,    -0.171,    55.910,   5,  12,1.02762, -47.8497,   1
  5369,'BRIDGEPO    ',  13.8000,2,    -0.179,    34.298,   5,  12,1.02549, -47.2328,   1
  5382,'ENNIS 2     ',  13.8000,2,     0.863,    74.235,   5,  14,1.04000, -50.5178,   1
  5383,'ENNIS 3     ',  13.8000,2,     0.794,    65.159,   5,  14,1.04000, -50.3881,   1
  5399,'ALBANY 1    ',  13.8000,2,     3.905,    92.760,   5,  15,1.04155, -46.2614,   1
  5415,'PALO PIN    ',  13.8000,2,     0.865,    37.368,   5,  12,1.03273, -47.8370,   1
  5416,'PALO PIN    ',  13.8000,2,     0.964,    36.951,   5,  12,1.03265, -47.8306,   1
  5417,'PALO PIN    ',  13.8000,2,     1.182,    41.916,   5,  12,1.03313, -47.9064,   1
  5418,'PALO PIN    ',  13.8000,2,     0.673,    43.325,   5,  12,1.03347, -47.9363,   1
  5419,'PALO PIN    ',  13.8000,2,     1.379,    73.901,   5,  12,1.03485, -48.1554,   1
  5444,'MIDLOTHI    ', 500.0000,2,   -12.024,   536.572,   5,  17,1.02537, -50.0740,   1
  6006,'BASTROP     ',  13.8000,2,    -0.086,    32.455,   6,  25,1.04000, -54.2549,   1
  6007,'BASTROP     ',  13.8000,2,     0.084,    50.289,   6,  25,1.04000, -53.6257,   1
  6008,'BASTROP     ',  13.8000,2,     0.097,    27.880,   6,  25,1.04000, -54.2192,   1
  6009,'BASTROP     ',  13.8000,2,     0.050,    16.662,   6,  25,1.04000, -53.9122,   1
  6010,'BASTROP     ',  13.8000,2,    -0.085,    23.935,   6,  25,1.04000, -54.1444,   1
  6030,'YOAKUM 0    ', 230.0000,1,     0.001,    10.866,   6,  24,1.01784, -58.6823,   1
  6042,'AUSTIN 3    ',  13.8000,2,     0.420,    11.429,   6,  23,1.04000, -54.6301,   1
  6062,'BRENHAM     ', 500.0000,1,    -0.423,    70.517,   6,  25,1.02814, -56.9120,   1
  6069,'MARION 1    ',  18.0000,2,     0.894,    52.326,   6,  22,1.03000, -57.3354,   1
  6070,'MARION 1    ',  18.0000,2,     0.455,    21.596,   6,  22,1.03000, -56.8284,   1
  6071,'MARION 1    ',  18.0000,2,     1.487,    65.950,   6,  22,1.03000, -57.4096,   1
  6072,'MARION 1    ',  18.0000,2,     0.665,    26.281,   6,  22,1.03000, -56.9828,   1
  6073,'MARION 1    ',  18.0000,2,     0.785,    39.342,   6,  22,1.03000, -57.2180,   1
  6074,'MARION 1    ',  18.0000,2,     0.539,    39.684,   6,  22,1.03000, -57.2215,   1
  6075,'LA GRANG    ', 500.0000,1,     3.051,   113.464,   6,  25,1.02556, -55.1750,   1
  6078,'LA GRANG    ',  22.0000,2,     0.000,     0.000,   6,  25,1.01778, -54.0891,   1
  6079,'LA GRANG    ',  22.0000,2,     0.000,     0.000,   6,  25,1.02203, -54.6709,   1
  6080,'LA GRANG    ',  22.0000,2,     0.000,     0.000,   6,  25,1.02064, -54.4874,   1
  6106,'WINCHEST    ',  13.8000,2,     1.154,    18.794,   6,  25,1.03445, -55.2365,   1
  6110,'ROCKDALE    ',  13.8000,2,     2.425,    88.351,   6,  25,1.04000, -53.3172,   1
  6111,'ROCKDALE    ',  13.8000,2,     2.520,    89.174,   6,  25,1.04000, -53.2060,   1
  6122,'HALLETTS    ', 115.0000,1,    -5.408,    28.210,   6,  24,0.98612, -63.5810,   1
  6145,'SAN ANTO    ',  13.8000,2,     1.478,    34.617,   6,  22,1.03000, -54.6058,   1
  6146,'SAN ANTO    ',  13.8000,2,     1.577,    35.943,   6,  22,1.03000, -54.7203,   1
  6147,'SAN ANTO    ',  13.8000,3,     1.841,    41.456,   6,  22,1.03000, -55.7878,   1
  6148,'SAN ANTO    ',  13.8000,2,     2.952,    67.718,   6,  22,1.03000, -56.6351,   1
  6149,'SAN ANTO    ',  13.8000,2,     6.450,   130.557,   6,  22,1.03000, -57.1497,   1
  6161,'SEGUIN 1    ', 500.0000,1,    -7.198,   412.313,   6,  22,1.03085, -57.1661,   1
  6164,'SEGUIN 1    ',  13.8000,2,     0.000,     0.000,   6,  22,1.03000, -56.5367,   1
  6165,'SEGUIN 1    ',  13.8000,2,     0.000,     0.000,   6,  22,1.03000, -56.4645,   1
  6166,'SEGUIN 1    ',  13.8000,2,     0.000,     0.000,   6,  22,1.03000, -56.8704,   1
  6167,'SEGUIN 1    ',  13.8000,2,     0.000,     0.000,   6,  22,1.03000, -56.6147,   1
  6173,'CUERO 2     ', 115.0000,1,     0.145,    33.536,   6,  24,1.01927, -60.2076,   1
  6188,'COLUMBUS    ', 230.0000,1,     0.978,    37.075,   6,  25,1.01527, -57.0683,   1
  6195,'INDUSTRY    ', 115.0000,1,    -1.036,    11.851,   6,  25,0.99666, -62.5400,   1
  6213,'MARBLE F    ',  13.8000,2,     0.531,    22.456,   6,  23,1.04145, -53.9833,   1
  6214,'MARBLE F    ',  13.8000,2,     0.818,    36.475,   6,  23,1.04000, -52.8070,   1
  6215,'MARBLE F    ',  13.8000,2,     3.440,   141.627,   6,  23,1.04210, -54.6368,   1
  6216,'MARBLE F    ',  13.8000,2,     1.589,    63.005,   6,  23,1.04125, -53.8461,   1
  6239,'ELMENDOR    ', 500.0000,1,     1.451,   821.895,   6,  22,1.03572, -57.6654,   1
  6243,'ELMENDOR    ',  13.8000,2,     0.000,     0.000,   6,  22,1.04000, -56.5764,   1
  6244,'ELMENDOR    ',  13.8000,2,     0.000,     0.000,   6,  22,1.04000, -55.8003,   1
  6245,'ELMENDOR    ',  13.8000,2,     0.000,     0.000,   6,  22,1.04000, -56.0904,   1
  6246,'ELMENDOR    ',  13.8000,2,     0.000,     0.000,   6,  22,1.04000, -56.8575,   1
...
 0 /End of Bus data, Begin Load data
  1004,'99',1,   1,   9,    29.776,    11.930,     0.000,     0.000,     0.000,     0.000,   1
  1021,'99',1,   1,   9,    15.172,    11.213,     0.000,     0.000,     0.000,     0.000,   1
  1023,'99',1,   1,   9,    14.029,     2.575,     0.000,     0.000,     0.000,     0.000,   1
  1026,'99',1,   1,   9,    14.383,     4.962,     0.000,     0.000,     0.000,     0.000,   1
  1033,'99',1,   1,   9,   116.986,    85.181,     0.000,     0.000,     0.000,     0.000,   1
  1039,'99',1,   1,   9,    18.494,    10.035,     0.000,     0.000,     0.000,     0.000,   1
  1042,'99',1,   1,   9,    25.656,    18.948,     0.000,     0.000,     0.000,     0.000,   1
  1048,'99',1,   1,   9,    58.716,    22.171,     0.000,     0.000,     0.000,     0.000,   1
  1049,'99',1,   1,   9,    39.432,    13.267,     0.000,     0.000,     0.000,     0.000,   1
  1053,'99',1,   1,   9,    44.078,    15.223,     0.000,     0.000,     0.000,     0.000,   1
  1057,'99',1,   1,   9,    45.067,    26.140,     0.000,     0.000,     0.000,     0.000,   1
  1063,'99',1,   1,   9,    23.713,    17.712,     0.000,     0.000,     0.000,     0.000,   1
  1066,'99',1,   1,   9,    24.009,    15.606,     0.000,     0.000,     0.000,     0.000,   1
  1070,'99',1,   1,   9,    31.206,    27.103,     0.000,     0.000,     0.000,     0.000,   1
  1072,'99',1,   1,   9,    45.938,    17.051,     0.000,     0.000,     0.000,     0.000,   1
  1073,'99',1,   1,   9,    30.142,    11.246,     0.000,     0.000,     0.000,     0.000,   1
  1074,'99',1,   1,   9,    30.845,    13.361,     0.000,     0.000,     0.000,     0.000,   1
  1075,'99',1,   1,   9,    38.103,    16.605,     0.000,     0.000,     0.000,     0.000,   1
  1076,'99',1,   1,   9,    80.962,    31.228,     0.000,     0.000,     0.000,     0.000,   1
  1077,'99',1,   1,   9,    31.930,    13.528,     0.000,     0.000,     0.000,     0.000,   1
  1081,'99',1,   1,   9,    67.412,    29.597,     0.000,     0.000,     0.000,     0.000,   1
  1082,'99',1,   1,   9,    58.197,    24.372,     0.000,     0.000,     0.000,     0.000,   1
  1084,'99',1,   1,   9,    97.288,    39.885,     0.000,     0.000,     0.000,     0.000,   1
  2004,'99',1,   2,  11,   139.844,    52.911,     0.000,     0.000,     0.000,     0.000,   1
  2005,'99',1,   2,  11,   119.377,    44.732,     0.000,     0.000,     0.000,     0.000,   1
  2006,'99',1,   2,  11,    72.914,    28.795,     0.000,     0.000,     0.000,     0.000,   1
  2013,'99',1,   2,  10,     2.847,     3.842,     0.000,     0.000,     0.000,     0.000,   1
  2019,'99',1,   2,  10,     3.026,     6.455,     0.000,     0.000,     0.000,     0.000,   1
  2024,'99',1,   2,  11,    69.572,    28.586,     0.000,     0.000,     0.000,     0.000,   1
  2042,'99',1,   2,  10,     3.634,     2.673,     0.000,     0.000,     0.000,     0.000,   1
  2057,'99',1,   2,  11,   148.446,    59.360,     0.000,     0.000,     0.000,     0.000,   1
  2059,'99',1,   2,  10,     2.112,     0.842,     0.000,     0.000,     0.000,     0.000,   1
  2062,'99',1,   2,  10,    70.081,    23.181,     0.000,     0.000,     0.000,     0.000,   1
  2071,'99',1,   2,  11,    25.084,     8.894,     0.000,     0.000,     0.000,     0.000,   1
  2078,'99',1,   2,  11,    73.972,    30.596,     0.000,     0.000,     0.000,     0.000,   1
  2100,'99',1,   2,  10,    12.135,     6.075,     0.000,     0.000,     0.000,     0.000,   1
  2115,'99',1,   2,  11,    42.947,    16.128,     0.000,     0.000,     0.000,     0.000,   1
  2116,'99',1,   2,  11,    79.631,    32.979,     0.000,     0.000,     0.000,     0.000,   1
  2117,'99',1,   2,  11,    36.338,    14.046,     0.000,     0.000,     0.000,     0.000,   1
  2118,'99',1,   2,  11,    32.727,    12.414,     0.000,     0.000,     0.000,     0.000,   1
  2119,'99',1,   2,  11,    65.776,    26.822,     0.000,     0.000,     0.000,     0.000,   1
  2120,'99',1,   2,  11,    33.942,    12.908,     0.000,     0.000,     0.000,     0.000,   1
  2123,'99',1,   2,  10,    20.140,    11.383,     0.000,     0.000,     0.000,     0.000,   1
  2127,'99',1,   2,  10,   120.298,    34.368,     0.000,     0.000,     0.000,     0.000,   1
  3017,'99',1,   3,  27,    28.544,    16.023,     0.000,     0.000,     0.000,     0.000,   1
  3020,'99',1,   3,  27,    98.762,    61.709,     0.000,     0.000,     0.000,     0.000,   1
  3028,'99',1,   3,  27,    52.602,    26.627,     0.000,     0.000,     0.000,     0.000,   1
  3034,'99',1,   3,  27,    15.195,     7.800,     0.000,     0.000,     0.000,     0.000,   1
  3039,'99',1,   3,  27,    19.269,    14.180,     0.000,     0.000,     0.000,     0.000,   1
  3045,'99',1,   3,  27,    10.564,     8.181,     0.000,     0.000,     0.000,     0.000,   1
  3048,'99',1,   3,  27,   595.394,   243.053,     0.000,     0.000,     0.000,     0.000,   1
  3055,'99',1,   3,  27,    41.260,    21.870,     0.000,     0.000,     0.000,     0.000,   1
  3056,'99',1,   3,  27,    23.550,    12.532,     0.000,     0.000,     0.000,     0.000,   1
  3057,'99',1,   3,  27,    24.323,    12.635,     0.000,     0.000,     0.000,     0.000,   1
  3060,'99',1,   3,  27,    10.905,     7.522,     0.000,     0.000,     0.000,     0.000,   1
  3061,'99',1,   3,  27,    13.007,     9.365,     0.000,     0.000,     0.000,     0.000,   1
  3062,'99',1,   3,  27,    22.197,    16.808,     0.000,     0.000,     0.000,     0.000,   1
  3063,'99',1,   3,  27,    15.379,    12.136,     0.000,     0.000,     0.000,     0.000,   1
  3068,'99',1,   3,  27,    21.723,    15.701,     0.000,     0.000,     0.000,     0.000,   1
  3071,'99',1,   3,  27,    12.746,     3.176,     0.000,     0.000,     0.000,     0.000,   1
  3081,'99',1,   3,  27,    11.203,     6.623,     0.000,     0.000,     0.000,     0.000,   1
  3084,'99',1,   3,  27,    12.015,     2.853,     0.000,     0.000,     0.000,     0.000,   1
  3092,'99',1,   3,  27,    31.899,    18.133,     0.000,     0.000,     0.000,     0.000,   1
  3095,'99',1,   3,  27,    24.369,    13.082,     0.000,     0.000,     0.000,     0.000,   1
  3098,'99',1,   3,  27,     8.443,     2.585,     0.000,     0.000,     0.000,     0.000,   1
  3106,'99',1,   3,  28,    42.696,    12.121,     0.000,     0.000,     0.000,     0.000,   1
  3118,'99',1,   3,  27,    16.913,    12.024,     0.000,     0.000,     0.000,     0.000,   1
  3122,'99',1,   3,  27,     9.657,     2.057,     0.000,     0.000,     0.000,     0.000,   1
  3127,'99',1,   3,  27,     4.546,    32.749,     0.000,     0.000,     0.000,     0.000,   1
  3129,'99',1,   3,  27,    11.299,    17.362,     0.000,     0.000,     0.000,     0.000,   1
  3131,'99',1,   3,  27,   133.561,    41.540,     0.000,     0.000,     0.000,     0.000,   1
  4010,'99',1,   4,  21,    48.455,    31.871,     0.000,     0.000,     0.000,     0.000,   1
  4026,'99',1,   4,  20,   136.608,    80.185,     0.000,     0.000,     0.000,     0.000,   1
  4029,'99',1,   4,  21,   100.811,    39.231,     0.000,     0.000,     0.000,     0.000,   1
  4047,'99',1,   4,  19,    86.975,    60.793,     0.000,     0.000,     0.000,     0.000,   1
  4050,'99',1,   4,  19,    18.637,     7.228,     0.000,     0.000,     0.000,     0.000,   1
  4058,'99',1,   4,  21,    23.999,    10.841,     0.000,     0.000,     0.000,     0.000,   1
  4059,'99',1,   4,  21,    25.809,    12.516,     0.000,     0.000,     0.000,     0.000,   1
  4060,'99',1,   4,  21,    19.270,     7.652,     0.000,     0.000,     0.000,     0.000,   1
  4061,'99',1,   4,  21,    24.631,    11.026,     0.000,     0.000,     0.000,     0.000,   1
  4062,'99',1,   4,  21,    20.127,     8.635,     0.000,     0.000,     0.000,     0.000,   1
  4063,'99',1,   4,  21,    24.120,    11.160,     0.000,     0.000,     0.000,     0.000,   1
  4082,'99',1,   4,  21,    18.453,    15.073,     0.000,     0.000,     0.000,     0.000,   1
  4083,'99',1,   4,  21,    20.580,    16.165,     0.000,     0.000,     0.000,     0.000,   1
  4084,'99',1,   4,  21,    37.944,    29.262,     0.000,     0.000,     0.000,     0.000,   1
  4085,'99',1,   4,  21,    47.189,    34.385,     0.000,     0.000,     0.000,     0.000,   1
  4105,'99',1,   4,  21,   117.234,    43.125,     0.000,     0.000,     0.000,     0.000,   1
  4115,'99',1,   4,  20,   162.161,   104.590,     0.000,     0.000,     0.000,     0.000,   1
  4116,'99',1,   4,  20,   155.110,    98.016,     0.000,     0.000,     0.000,     0.000,   1
  4142,'99',1,   4,  21,   114.930,    86.061,     0.000,     0.000,     0.000,     0.000,   1
  4153,'99',1,   4,  21,   274.871,   185.930,     0.000,     0.000,     0.000,     0.000,   1
  4160,'99',1,   4,  21,    96.964,    51.796,     0.000,     0.000,     0.000,     0.000,   1
  4161,'99',1,   4,  21,    42.359,    24.425,     0.000,     0.000,     0.000,     0.000,   1
  4162,'99',1,   4,  21,    42.553,    23.876,     0.000,     0.000,     0.000,     0.000,   1
  4166,'99',1,   4,  21,    37.454,    24.911,     0.000,     0.000,     0.000,     0.000,   1
  4173,'99',1,   4,  21,    64.938,    14.158,     0.000,     0.000,     0.000,     0.000,   1
  4177,'99',1,   4,  20,    75.502,    40.740,     0.000,     0.000,     0.000,     0.000,   1
  4181,'99',1,   4,  21,   170.802,    74.711,     0.000,     0.000,     0.000,     0.000,   1
  4183,'99',1,   4,  19,   347.889,   177.202,     0.000,     0.000,     0.000,     0.000,   1
  4192,'99',1,   4,  19,   732.125,   334.637,     0.000,     0.000,     0.000,     0.000,   1
  4194,'99',1,   4,  19,   728.114,   237.146,     0.000,     0.000,     0.000,     0.000,   1
  5020,'99',1,   5,  12,    49.239,    19.606,     0.000,     0.000,     0.000,     0.000,   1
  5037,'99',1,   5,  16,   218.485,    85.249,     0.000,     0.000,     0.000,     0.000,   1
  5038,'99',1,   5,  16,   211.231,    83.076,     0.000,     0.000,     0.000,     0.000,   1
  5039,'99',1,   5,  16,   484.554,   180.885,     0.000,     0.000,     0.000,     0.000,   1
  5040,'99',1,   5,  16,   159.974,    63.076,     0.000,     0.000,     0.000,     0.000,   1
  5041,'99',1,   5,  16,   233.527,    89.171,     0.000,     0.000,     0.000,     0.000,   1
  5042,'99',1,   5,  16,   196.775,    77.797,     0.000,     0.000,     0.000,     0.000,   1
  5057,'99',1,   5,  12,   102.335,    39.375,     0.000,     0.000,     0.000,     0.000,   1
  5058,'99',1,   5,  12,    75.340,    26.763,     0.000,     0.000,     0.000,     0.000,   1
  5067,'99',1,   5,  17,   311.680,   123.163,     0.000,     0.000,     0.000,     0.000,   1
  5068,'99',1,   5,  17,   297.450,   116.279,     0.000,     0.000,     0.000,     0.000,   1
  5069,'99',1,   5,  17,   279.299,   109.104,     0.000,     0.000,     0.000,     0.000,   1
  5089,'99',1,   5,  18,    90.549,    39.506,     0.000,     0.000,     0.000,     0.000,   1
  5166,'99',1,   5,  17,   145.082,    60.151,     0.000,     0.000,     0.000,     0.000,   1
  5198,'99',1,   5,  12,   119.697,    48.181,     0.000,     0.000,     0.000,     0.000,   1
  5206,'99',1,   5,  12,    86.332,    34.057,     0.000,     0.000,     0.000,     0.000,   1
  5207,'99',1,   5,  12,   157.927,    62.536,     0.000,     0.000,     0.000,     0.000,   1
  5208,'99',1,   5,  12,   125.237,    50.362,     0.000,     0.000,     0.000,     0.000,   1
  5238,'99',1,   5,  12,   131.328,    57.092,     0.000,     0.000,     0.000,     0.000,   1
  5243,'99',1,   5,  18,   111.514,    60.806,     0.000,     0.000,     0.000,     0.000,   1
  5262,'99',1,   5,  18,   292.343,   143.999,     0.000,     0.000,     0.000,     0.000,   1
  5263,'99',1,   5,  18,   403.311,   196.655,     0.000,     0.000,     0.000,     0.000,   1
  5281,'99',1,   5,  13,   131.608,    60.128,     0.000,     0.000,     0.000,     0.000,   1
  5282,'99',1,   5,  13,   155.493,    70.768,     0.000,     0.000,     0.000,     0.000,   1
  5283,'99',1,   5,  13,   204.315,    91.274,     0.000,     0.000,     0.000,     0.000,   1
  5298,'99',1,   5,  16,   283.366,   104.911,     0.000,     0.000,     0.000,     0.000,   1
  5299,'99',1,   5,  16,   133.836,    53.126,     0.000,     0.000,     0.000,     0.000,   1
  5300,'99',1,   5,  16,   160.914,    63.763,     0.000,     0.000,     0.000,     0.000,   1
  5302,'99',1,   5,  16,   171.692,    68.672,     0.000,     0.000,     0.000,     0.000,   1
  5303,'99',1,   5,  16,   231.075,    90.666,     0.000,     0.000,     0.000,     0.000,   1
  5319,'99',1,   5,  18,   124.554,    53.500,     0.000,     0.000,     0.000,     0.000,   1
  5320,'99',1,   5,  18,   115.453,    46.911,     0.000,     0.000,     0.000,     0.000,   1
  5321,'99',1,   5,  18,   129.809,    55.692,     0.000,     0.000,     0.000,     0.000,   1
  5324,'99',1,   5,  17,   173.192,    72.884,     0.000,     0.000,     0.000,     0.000,   1
  5325,'99',1,   5,  17,   172.601,    74.120,     0.000,     0.000,     0.000,     0.000,   1
  5326,'99',1,   5,  17,   511.917,   190.074,     0.000,     0.000,     0.000,     0.000,   1
  5343,'99',1,   5,  17,   135.743,    53.344,     0.000,     0.000,     0.000,     0.000,   1
  5360,'99',1,   5,  13,   152.769,    64.422,     0.000,     0.000,     0.000,     0.000,   1
  5364,'99',1,   5,  12,   169.301,    65.037,     0.000,     0.000,     0.000,     0.000,   1
  5365,'99',1,   5,  12,    82.736,    31.568,     0.000,     0.000,     0.000,     0.000,   1
  5366,'99',1,   5,  12,    73.655,    27.429,     0.000,     0.000,     0.000,     0.000,   1
  5367,'99',1,   5,  12,    75.737,    28.432,     0.000,     0.000,     0.000,     0.000,   1
  5368,'99',1,   5,  12,   111.388,    42.861,     0.000,     0.000,     0.000,     0.000,   1
  5369,'99',1,   5,  12,    70.792,    25.911,     0.000,     0.000,     0.000,     0.000,   1
  5382,'99',1,   5,  14,   170.054,    71.507,     0.000,     0.000,     0.000,     0.000,   1
  5383,'99',1,   5,  14,   149.303,    63.790,     0.000,     0.000,     0.000,     0.000,   1
  5399,'99',1,   5,  15,   103.044,    51.521,     0.000,     0.000,     0.000,     0.000,   1
  5415,'99',1,   5,  12,    58.359,    23.407,     0.000,     0.000,     0.000,     0.000,   1
  5416,'99',1,   5,  12,    57.658,    23.301,     0.000,     0.000,     0.000,     0.000,   1
  5417,'99',1,   5,  12,    64.951,    26.299,     0.000,     0.000,     0.000,     0.000,   1
  5418,'99',1,   5,  12,    67.041,    26.306,     0.000,     0.000,     0.000,     0.000,   1
  5419,'99',1,   5,  12,   107.710,    45.125,     0.000,     0.000,     0.000,     0.000,   1
  5444,'99',1,   5,  17,  1122.290,   393.047,     0.000,     0.000,     0.000,     0.000,   1
  6006,'99',1,   6,  25,    55.881,    26.163,     0.000,     0.000,     0.000,     0.000,   1
  6007,'99',1,   6,  25,    87.357,    41.513,     0.000,     0.000,     0.000,     0.000,   1
  6008,'99',1,   6,  25,    49.630,    22.954,     0.000,     0.000,     0.000,     0.000,   1
  6009,'99',1,   6,  25,    28.667,    14.389,     0.000,     0.000,     0.000,     0.000,   1
  6010,'99',1,   6,  25,    42.857,    19.432,     0.000,     0.000,     0.000,     0.000,   1
  6030,'99',1,   6,  24,     1.116,     0.622,     0.000,     0.000,     0.000,     0.000,   1
  6042,'99',1,   6,  23,    24.963,    13.212,     0.000,     0.000,     0.000,     0.000,   1
  6062,'99',1,   6,  25,   215.872,    93.512,     0.000,     0.000,     0.000,     0.000,   1
  6069,'99',1,   6,  22,   102.030,    47.822,     0.000,     0.000,     0.000,     0.000,   1
  6070,'99',1,   6,  22,    41.180,    20.106,     0.000,     0.000,     0.000,     0.000,   1
  6071,'99',1,   6,  22,   128.798,    60.886,     0.000,     0.000,     0.000,     0.000,   1
  6072,'99',1,   6,  22,    49.811,    24.566,     0.000,     0.000,     0.000,     0.000,   1
  6073,'99',1,   6,  22,    76.347,    36.180,     0.000,     0.000,     0.000,     0.000,   1
  6074,'99',1,   6,  22,    77.232,    35.995,     0.000,     0.000,     0.000,     0.000,   1
  6075,'99',1,   6,  25,   155.032,    69.880,     0.000,     0.000,     0.000,     0.000,   1
  6106,'99',1,   6,  25,    38.282,    17.623,     0.000,     0.000,     0.000,     0.000,   1
  6110,'99',1,   6,  25,   145.980,    74.457,     0.000,     0.000,     0.000,     0.000,   1
  6111,'99',1,   6,  25,   148.257,    75.304,     0.000,     0.000,     0.000,     0.000,   1
  6122,'99',1,   6,  24,   120.091,    27.199,     0.000,     0.000,     0.000,     0.000,   1
  6145,'99',1,   6,  22,    79.269,    42.407,     0.000,     0.000,     0.000,     0.000,   1
  6146,'99',1,   6,  22,    82.201,    43.977,     0.000,     0.000,     0.000,     0.000,   1
  6147,'99',1,   6,  22,    94.160,    49.140,     0.000,     0.000,     0.000,     0.000,   1
  6148,'99',1,   6,  22,   154.045,    78.139,     0.000,     0.000,     0.000,     0.000,   1
  6149,'99',1,   6,  22,   298.316,   150.217,     0.000,     0.000,     0.000,     0.000,   1
  6161,'99',1,   6,  22,   908.285,   368.366,     0.000,     0.000,     0.000,     0.000,   1
  6173,'99',1,   6,  24,    95.366,    11.139,     0.000,     0.000,     0.000,     0.000,   1
  6188,'99',1,   6,  25,    88.113,    36.476,     0.000,     0.000,     0.000,     0.000,   1
  6195,'99',1,   6,  25,    51.622,    14.186,     0.000,     0.000,     0.000,     0.000,   1
  6213,'99',1,   6,  23,    27.080,    17.879,     0.000,     0.000,     0.000,     0.000,   1
  6214,'99',1,   6,  23,    47.075,    27.012,     0.000,     0.000,     0.000,     0.000,   1
  6215,'99',1,   6,  23,   172.019,    92.466,     0.000,     0.000,     0.000,     0.000,   1
  6216,'99',1,   6,  23,    76.856,    43.603,     0.000,     0.000,     0.000,     0.000,   1
  6239,'99',1,   6,  22,  1202.496,   664.773,     0.000,     0.000,     0.000,     0.000,   1
  6257,'99',1,   6,  23,    88.835,    41.201,     0.000,     0.000,     0.000,     0.000,   1
  6258,'99',1,   6,  23,    44.801,    21.832,     0.000,     0.000,     0.000,     0.000,   1
  6260,'99',1,   6,  23,    98.532,    44.809,     0.000,     0.000,     0.000,     0.000,   1
  6263,'99',1,   6,  24,   288.640,   103.435,     0.000,     0.000,     0.000,     0.000,   1
  6295,'99',1,   6,  23,    99.344,    46.526,     0.000,     0.000,     0.000,     0.000,   1
  6296,'99',1,   6,  23,   117.869,    53.669,     0.000,     0.000,     0.000,     0.000,   1
  6297,'99',1,   6,  23,    43.385,    20.707,     0.000,     0.000,     0.000,     0.000,   1
  6302,'99',1,   6,  22,    47.188,    21.275,     0.000,     0.000,     0.000,     0.000,   1
  6303,'99',1,   6,  22,   142.440,    64.293,     0.000,     0.000,     0.000,     0.000,   1
  6304,'99',1,   6,  22,    55.541,    25.533,     0.000,     0.000,     0.000,     0.000,   1
  6305,'99',1,   6,  22,    46.716,    20.863,     0.000,     0.000,     0.000,     0.000,   1
  6341,'99',1,   6,  25,    91.388,    20.595,     0.000,     0.000,     0.000,     0.000,   1
  6349,'99',1,   6,  23,  1110.081,   432.490,     0.000,     0.000,     0.000,     0.000,   1
...
 0 /End of Load data, Begin Generator data
  1004,'1 ',    60.932,   -30.380,    44.940,   -30.380,1.01000,     0,   253.200,   0.00000,   1.00000,   0.00000,   0.00000,1.00000,1,  100.0,   211.000,    63.300,   1,1.0000
  1021,'1 ',    57.613,   -28.730,    42.490,   -28.730,1.00000,     0,   239.400,   0.00000,   1.00000,   0.00000,   0.00000,1.00000,1,  100.0,   199.500,    59.850,   1,1.0000
  1023,'1 ',    51.980,   -15.006,    38.340,   -25.920,1.01000,     0,   216.000,   0.00000,   1.00000,   0.00000,   0.00000,1.00000,1,  100.0,   180.000,    54.000,   1,1.0000
  1026,'1 ',    35.866,   -17.880,    26.450,   -17.880,1.00000,     0,   149.040,   0.00000,   1.00000,   0.00000,   0.00000,1.00000,1,  100.0,   124.200,    37.260,   1,1.0000
  1033,'1 ',    80.280,   -40.030,    59.210,   -40.030,1.00000,     0,   333.600,   0.00000,   1.00000,   0.00000,   0.00000,1.00000,1,  100.0,   278.000,    83.400,   1,1.0000
  1039,'1 ',    42.597,   -21.240,    31.420,   -21.240,1.00000,     0,   177.000,   0.00000,   1.00000,   0.00000,   0.00000,1.00000,1,  100.0,   147.500,    44.250,   1,1.0000
  1042,'1 ',    46.936,   -10.068,    25.960,   -17.550,1.00000,     0,   146.280,   0.00000,   1.00000,   0.00000,   0.00000,1.00000,1,  100.0,   121.900,    36.570,   1,1.0000
  1048,'1 ',    97.560,   -20.094,   165.530,   -36.100,1.00000,     0,   390.240,   0.00000,   0.10170,   0.00000,   0.00000,1.00000,1,  100.0,   325.200,    97.560,   1,1.0000
  1049,'1 ',    97.560,    -6.912,   165.530,   -36.100,1.00000,     0,   390.240,   0.00000,   0.13490,   0.00000,   0.00000,1.00000,1,  100.0,   325.200,    97.560,   1,1.0000
  1053,'1 ',    53.640,   -19.850,    91.010,   -19.850,1.00000,     0,   214.560,   0.00000,   0.16870,   0.00000,   0.00000,1.00000,1,  100.0,   178.800,    53.640,   1,1.0000
  1057,'1 ',    46.204,   -17.280,    25.560,   -17.280,1.00000,     0,   144.000,   0.00000,   1.00000,   0.00000,   0.00000,1.00000,1,  100.0,   120.000,    36.000,   1,1.0000
  1063,'1 ',    39.795,     0.000,     0.000,     0.000,1.01000,     0,   276.000,   0.00000,   1.00000,   0.00000,   0.00000,1.00000,1,  100.0,   230.000,    69.000,   1,1.0000
  1066,'1 ',    41.153,   -10.602,    30.350,   -20.520,1.00000,     0,   171.000,   0.00000,   1.00000,   0.00000,   0.00000,1.00000,1,  100.0,   142.500,    42.750,   1,1.0000
  1070,'1 ',    46.351,    19.594,    34.190,   -23.110,1.04000,     0,   192.600,   0.00000,   1.00000,   0.00000,   0.00000,1.00000,1,  100.0,   160.500,    48.150,   1,1.0000
  1072,'1 ',    42.753,   -12.777,    97.800,   -21.330,1.01000,     0,   230.560,   0.00000,   0.30820,   0.00000,   0.00000,1.00000,1,  100.0,   192.130,    57.640,   1,1.0000
  1073,'1 ',    57.640,   -10.767,    97.800,   -21.330,1.01000,     0,   230.560,   0.00000,   0.19480,   0.00000,   0.00000,1.00000,1,  100.0,   192.130,    57.640,   1,1.0000
  1074,'1 ',    57.640,    -8.121,    97.800,   -21.330,1.01000,     0,   230.560,   0.00000,   0.20960,   0.00000,   0.00000,1.00000,1,  100.0,   192.130,    57.640,   1,1.0000
  1075,'1 ',    57.640,    -9.895,    97.800,   -21.330,1.01000,     0,   230.560,   0.00000,   0.12370,   0.00000,   0.00000,1.00000,1,  100.0,   192.130,    57.640,   1,1.0000
  1076,'1 ',    57.640,   -19.747,    97.800,   -21.330,1.01000,     0,   230.560,   0.00000,   0.10660,   0.00000,   0.00000,1.00000,1,  100.0,   192.130,    57.640,   1,1.0000
  1077,'1 ',    57.640,    -8.840,    97.800,   -21.330,1.01000,     0,   230.560,   0.00000,   0.15380,   0.00000,   0.00000,1.00000,1,  100.0,   192.130,    57.640,   1,1.0000
  1081,'1 ',    85.950,   -31.800,   145.830,   -31.800,1.01000,     0,   343.800,   0.00000,   0.14960,   0.00000,   0.00000,1.00000,1,  100.0,   286.500,    85.950,   1,1.0000
  1082,'1 ',    43.317,   -21.600,    31.950,   -21.600,1.00000,     0,   180.000,   0.00000,   1.00000,   0.00000,   0.00000,1.00000,1,  100.0,   150.000,    45.000,   1,1.0000
  1084,'1 ',    33.352,    24.600,    24.600,   -16.630,1.04000,     0,   138.600,   0.00000,   1.00000,   0.00000,   0.00000,1.00000,1,  100.0,   115.500,    34.650,   1,1.0000
  2004,'1 ',   117.540,   -43.490,   199.430,   -43.490,1.02000,     0,   470.160,   0.00000,   0.10640,   0.00000,   0.00000,1.00000,1,  100.0,   391.800,   117.540,   1,1.0000
  2005,'1 ',   117.540,   -43.490,   199.430,   -43.490,1.02000,     0,   470.160,   0.00000,   0.22750,   0.00000,   0.00000,1.00000,1,  100.0,   391.800,   117.540,   1,1.0000
  2006,'1 ',   117.540,   -41.120,   199.430,   -43.490,1.02000,     0,   470.160,   0.00000,   0.20040,   0.00000,   0.00000,1.00000,1,  100.0,   391.800,   117.540,   1,1.0000
  2013,'1 ',    56.092,   -28.890,    42.730,   -28.890,1.00000,     0,   240.720,   0.00000,   1.00000,   0.00000,   0.00000,1.00000,1,  100.0,   200.600,    60.180,   1,1.0000
  2019,'1 ',   145.533,   -20.593,    46.430,   -31.390,1.04000,     0,   261.600,   0.00000,   1.00000,   0.00000,   0.00000,1.00000,1,  100.0,   218.000,    65.400,   1,1.0000
  2024,'1 ',    50.000,   -18.500,    84.830,   -18.500,1.02000,     0,   200.000,   0.00000,   0.15080,   0.00000,   0.00000,1.00000,1,  100.0,   166.670,    50.000,   1,1.0000
  2042,'1 ',    31.656,   -11.460,    16.950,   -11.460,1.01000,     0,    95.520,   0.00000,   1.00000,   0.00000,   0.00000,1.00000,1,  100.0,    79.600,    23.880,   1,1.0000
  2057,'1 ',   243.527,  -211.690,   335.520,   -87.840,0.99000,     0,   864.000,   0.00000,   0.17700,   0.00000,   0.00000,1.00000,1,  100.0,   720.000,   216.000,   1,1.0000
  2059,'1 ',    40.055,   -11.520,    17.040,   -11.520,1.00000,     0,    96.000,   0.00000,   1.00000,   0.00000,   0.00000,1.00000,1,  100.0,    80.000,    24.000,   1,1.0000
  2062,'1 ',    69.581,   -18.740,    28.840,   -19.500,1.02000,     0,   162.480,   0.00000,   1.00000,   0.00000,   0.00000,1.00000,1,  100.0,   135.400,    40.620,   1,1.0000
  2071,'1 ',    46.307,   -21.600,    31.950,   -21.600,1.00000,     0,   180.000,   0.00000,   1.00000,   0.00000,   0.00000,1.00000,1,  100.0,   150.000,    45.000,   1,1.0000
  2078,'1 ',    34.732,   -12.035,    23.960,   -16.200,1.02000,     0,   135.000,   0.00000,   1.00000,   0.00000,   0.00000,1.00000,1,  100.0,   112.500,    33.750,   1,1.0000
  2100,'1 ',    65.745,   -21.600,    31.950,   -21.600,1.02000,     0,   180.000,   0.00000,   1.00000,   0.00000,   0.00000,1.00000,1,  100.0,   150.000,    45.000,   1,1.0000
  2115,'1 ',    55.410,   -20.500,    94.020,   -20.500,1.00000,     0,   221.660,   0.00000,   0.14250,   0.00000,   0.00000,1.00000,1,  100.0,   184.720,    55.410,   1,1.0000
  2116,'1 ',    55.410,   -20.500,    94.020,   -20.500,1.00000,     0,   221.660,   0.00000,   0.18690,   0.00000,   0.00000,1.00000,1,  100.0,   184.720,    55.410,   1,1.0000
  2117,'1 ',    55.410,   -20.500,    94.020,   -20.500,1.00000,     0,   221.660,   0.00000,   0.32540,   0.00000,   0.00000,1.00000,1,  100.0,   184.720,    55.410,   1,1.0000
  2118,'1 ',    55.410,   -20.500,    94.020,   -20.500,1.00000,     0,   221.660,   0.00000,   0.10610,   0.00000,   0.00000,1.00000,1,  100.0,   184.720,    55.410,   1,1.0000
  2119,'1 ',    55.410,   -20.500,    94.020,   -20.500,1.00000,     0,   221.660,   0.00000,   0.13600,   0.00000,   0.00000,1.00000,1,  100.0,   184.720,    55.410,   1,1.0000
  2120,'1 ',    55.410,   -20.500,    94.020,   -20.500,1.01000,     0,   221.660,   0.00000,   0.20680,   0.00000,   0.00000,1.00000,1,  100.0,   184.720,    55.410,   1,1.0000
  2123,'1 ',    72.263,   -26.160,    38.700,   -26.160,1.00000,     0,   218.040,   0.00000,   1.00000,   0.00000,   0.00000,1.00000,1,  100.0,   181.700,    54.510,   1,1.0000
  2127,'1 ',   150.889,   -41.560,    61.470,   -41.560,1.04000,     0,   346.320,   0.00000,   1.00000,   0.00000,   0.00000,1.00000,1,  100.0,   288.600,    86.580,   1,1.0000
  3017,'1 ',    48.950,   -14.267,    36.100,   -24.410,1.01000,     0,   203.400,   0.00000,   1.00000,   0.00000,   0.00000,1.00000,1,  100.0,   169.500,    50.850,   1,1.0000
  3020,'1 ',    43.317,    -2.234,    31.950,   -21.600,1.03000,     0,   180.000,   0.00000,   1.00000,   0.00000,   0.00000,1.00000,1,  100.0,   150.000,    45.000,   1,1.0000
  3028,'1 ',    61.742,    -0.050,    42.600,   -28.800,1.04000,     0,   240.000,   0.00000,   1.00000,   0.00000,   0.00000,1.00000,1,  100.0,   200.000,    60.000,   1,1.0000
  3034,'1 ',    37.684,     4.733,    27.800,   -18.790,1.03000,     0,   156.600,   0.00000,   1.00000,   0.00000,   0.00000,1.00000,1,  100.0,   130.500,    39.150,   1,1.0000
  3039,'1 ',    60.354,     4.859,    44.520,   -30.100,1.04000,     0,   250.800,   0.00000,   1.00000,   0.00000,   0.00000,1.00000,1,  100.0,   209.000,    62.700,   1,1.0000
  3045,'1 ',   134.100,     1.287,   227.520,   -49.620,1.04000,     0,   536.400,   0.00000,   0.14470,   0.00000,   0.00000,1.00000,1,  100.0,   447.000,   134.100,   1,1.0000
  3048,'1 ',    69.595,   -34.700,    51.330,   -34.700,1.04000,     0,   289.200,   0.00000,   1.00000,   0.00000,   0.00000,1.00000,1,  100.0,   241.000,    72.300,   1,1.0000
  3055,'1 ',    70.801,     3.503,    52.220,   -35.300,1.04000,     0,   294.200,   0.00000,   1.00000,   0.00000,   0.00000,1.00000,1,  100.0,   245.170,    73.550,   1,1.0000
  3056,'1 ',    70.801,     2.350,    52.220,   -35.300,1.04000,     0,   294.200,   0.00000,   1.00000,   0.00000,   0.00000,1.00000,1,  100.0,   245.170,    73.550,   1,1.0000
  3057,'1 ',    70.801,     1.649,    52.220,   -35.300,1.04000,     0,   294.200,   0.00000,   1.00000,   0.00000,   0.00000,1.00000,1,  100.0,   245.170,    73.550,   1,1.0000
  3060,'1 ',    47.829,     1.630,    35.280,   -23.850,1.04000,     0,   198.750,   0.00000,   1.00000,   0.00000,   0.00000,1.00000,1,  100.0,   165.630,    49.690,   1,1.0000
  3061,'1 ',    47.829,     1.883,    35.280,   -23.850,1.04000,     0,   198.750,   0.00000,   1.00000,   0.00000,   0.00000,1.00000,1,  100.0,   165.630,    49.690,   1,1.0000
  3062,'1 ',    47.829,     2.654,    35.280,   -23.850,1.04000,     0,   198.750,   0.00000,   1.00000,   0.00000,   0.00000,1.00000,1,  100.0,   165.630,    49.690,   1,1.0000
  3063,'1 ',    47.829,     1.819,    35.280,   -23.850,1.04000,     0,   198.750,   0.00000,   1.00000,   0.00000,   0.00000,1.00000,1,  100.0,   165.630,    49.690,   1,1.0000
  3068,'1 ',    43.317,    22.592,    31.950,   -21.600,1.04000,     0,   180.000,   0.00000,   1.00000,   0.00000,   0.00000,1.00000,1,  100.0,   150.000,    45.000,   1,1.0000
  3071,'1 ',    49.150,   -24.510,    36.250,   -24.510,1.00000,     0,   204.240,   0.00000,   1.00000,   0.00000,   0.00000,1.00000,1,  100.0,   170.200,    51.060,   1,1.0000
  3081,'1 ',    71.906,     2.562,    53.040,   -35.860,1.04000,     0,   298.800,   0.00000,   1.00000,   0.00000,   0.00000,1.00000,1,  100.0,   249.000,    74.700,   1,1.0000
  3084,'1 ',    67.139,   -33.480,    49.520,   -33.480,1.00000,     0,   279.000,   0.00000,   1.00000,   0.00000,   0.00000,1.00000,1,  100.0,   232.500,    69.750,   1,1.0000
  3092,'1 ',    57.755,     3.107,    42.600,   -28.800,1.04000,     0,   240.000,   0.00000,   1.00000,   0.00000,   0.00000,1.00000,1,  100.0,   200.000,    60.000,   1,1.0000
  3095,'1 ',    34.827,     8.787,    25.690,   -17.370,1.04000,     0,   144.720,   0.00000,   1.00000,   0.00000,   0.00000,1.00000,1,  100.0,   120.600,    36.180,   1,1.0000
  3098,'1 ',    46.204,     3.058,    34.080,   -23.040,1.04000,     0,   192.000,   0.00000,   1.00000,   0.00000,   0.00000,1.00000,1,  100.0,   160.000,    48.000,   1,1.0000
  3106,'1 ',    60.354,   -20.085,    62.477,    -2.690,1.00000,     0,    65.880,   0.00000,   0.29220,   0.00000,   0.00000,1.00000,1,  100.0,   162.800,     0.000,   1,1.0000
  3118,'1 ',    34.653,   -17.280,    25.560,   -17.280,1.00000,     0,   144.000,   0.00000,   1.00000,   0.00000,   0.00000,1.00000,1,  100.0,   120.000,    36.000,   1,1.0000
  3122,'1 ',    56.889,   -19.908,    41.960,   -28.370,1.00000,     0,   236.400,   0.00000,   1.00000,   0.00000,   0.00000,1.00000,1,  100.0,   197.000,    59.100,   1,1.0000
  3127,'1 ',    38.985,   -19.440,    28.760,   -19.440,1.00000,     0,   162.000,   0.00000,   1.00000,   0.00000,   0.00000,1.00000,1,  100.0,   135.000,    40.500,   1,1.0000
  3129,'1 ',    36.532,   -18.220,    26.940,   -18.220,1.00000,     0,   151.800,   0.00000,   1.00000,   0.00000,   0.00000,1.00000,1,  100.0,   126.500,    37.950,   1,1.0000
  3131,'1 ',    32.921,    -7.751,    24.280,   -16.420,1.02000,     0,   136.800,   0.00000,   1.00000,   0.00000,   0.00000,1.00000,1,  100.0,   114.000,    34.200,   1,1.0000
  4010,'1 ',    58.218,     4.555,    42.940,   -29.030,1.03000,     0,   241.920,   0.00000,   1.00000,   0.00000,   0.00000,1.00000,1,  100.0,   201.600,    60.480,   1,1.0000
  4026,'1 ',   123.000,     6.607,   191.060,   -50.020,1.03000,     0,   492.000,   0.00000,   0.32770,   0.00000,   0.00000,1.00000,1,  100.0,   410.000,   123.000,   1,1.0000
  4030,'1 ',   206.962,   -13.904,   290.040,   -75.930,1.01000,     0,   746.880,   0.00000,   0.27970,   0.00000,   0.00000,1.00000,1,  100.0,   622.400,   186.720,   1,1.0000
  4047,'1 ',    59.825,     3.369,    75.102,    -3.230,1.02000,     0,    79.200,   0.00000,   0.32270,   0.00000,   0.00000,1.00000,1,  100.0,   195.700,     0.000,   1,1.0000
  4050,'1 ',    57.755,   -28.800,    42.600,   -28.800,1.00000,     0,   240.000,   0.00000,   1.00000,   0.00000,   0.00000,1.00000,1,  100.0,   200.000,    60.000,   1,1.0000
  4058,'1 ',    43.200,    13.038,    73.300,   -15.980,1.03000,     0,   172.800,   0.00000,   0.13700,   0.00000,   0.00000,1.00000,1,  100.0,   144.000,    43.200,   1,1.0000
  4059,'1 ',    43.200,    14.700,    73.300,   -15.980,1.03000,     0,   172.800,   0.00000,   0.15140,   0.00000,   0.00000,1.00000,1,  100.0,   144.000,    43.200,   1,1.0000
  4060,'1 ',    43.200,     9.025,    73.300,   -15.980,1.03000,     0,   172.800,   0.00000,   0.13940,   0.00000,   0.00000,1.00000,1,  100.0,   144.000,    43.200,   1,1.0000
  4061,'1 ',    51.700,    13.133,    87.720,   -19.130,1.03000,     0,   206.800,   0.00000,   0.21560,   0.00000,   0.00000,1.00000,1,  100.0,   172.330,    51.700,   1,1.0000
  4062,'1 ',    51.700,     9.827,    87.720,   -19.130,1.03000,     0,   206.800,   0.00000,   0.25930,   0.00000,   0.00000,1.00000,1,  100.0,   172.330,    51.700,   1,1.0000
  4063,'1 ',    51.700,    13.572,    87.720,   -19.130,1.03000,     0,   206.800,   0.00000,   0.14410,   0.00000,   0.00000,1.00000,1,  100.0,   172.330,    51.700,   1,1.0000
  4082,'1 ',    73.020,    15.451,   123.890,   -27.020,1.04000,     0,   292.080,   0.00000,   0.13810,   0.00000,   0.00000,1.00000,1,  100.0,   243.400,    73.020,   1,1.0000
  4083,'1 ',    73.020,    16.724,   123.890,   -27.020,1.04000,     0,   292.080,   0.00000,   0.15700,   0.00000,   0.00000,1.00000,1,  100.0,   243.400,    73.020,   1,1.0000
  4084,'1 ',    73.020,    31.269,   123.890,   -27.020,1.04000,     0,   292.080,   0.00000,   0.19110,   0.00000,   0.00000,1.00000,1,  100.0,   243.400,    73.020,   1,1.0000
  4085,'1 ',   204.160,    36.177,   179.170,   -39.070,1.04000,     0,   422.400,   0.00000,   0.31920,   0.00000,   0.00000,1.00000,1,  100.0,   352.000,   105.600,   1,1.0000
  4105,'1 ',    55.568,    -8.279,    38.340,   -25.920,1.01000,     0,   216.000,   0.00000,   1.00000,   0.00000,   0.00000,1.00000,1,  100.0,   180.000,    54.000,   1,1.0000
  4115,'1 ',    39.540,    23.960,    67.090,   -14.630,1.04000,     0,   158.160,   0.00000,   0.11310,   0.00000,   0.00000,1.00000,1,  100.0,   131.800,    39.540,   1,1.0000
  4116,'1 ',    39.540,    22.387,    67.090,   -14.630,1.04000,     0,   158.160,   0.00000,   0.15150,   0.00000,   0.00000,1.00000,1,  100.0,   131.800,    39.540,   1,1.0000
  4142,'1 ',    54.290,    25.132,    40.040,   -27.070,1.04000,     0,   225.600,   0.00000,   1.00000,   0.00000,   0.00000,1.00000,1,  100.0,   188.000,    56.400,   1,1.0000
  4153,'1 ',    81.782,    48.538,    60.320,   -40.780,1.04000,     0,   339.840,   0.00000,   1.00000,   0.00000,   0.00000,1.00000,1,  100.0,   283.200,    84.960,   1,1.0000
  4160,'1 ',    59.330,    29.579,   100.660,   -21.950,1.03000,     0,   237.320,   0.00000,   0.18820,   0.00000,   0.00000,1.00000,1,  100.0,   197.770,    59.330,   1,1.0000
  4161,'1 ',    59.330,    12.553,   100.660,   -21.950,1.03000,     0,   237.320,   0.00000,   0.12390,   0.00000,   0.00000,1.00000,1,  100.0,   197.770,    59.330,   1,1.0000
  4162,'1 ',    59.330,    11.442,   100.660,   -21.950,1.03000,     0,   237.320,   0.00000,   0.17220,   0.00000,   0.00000,1.00000,1,  100.0,   197.770,    59.330,   1,1.0000
  4166,'1 ',    58.044,   -28.940,    42.810,   -28.940,1.00000,     0,   241.200,   0.00000,   1.00000,   0.00000,   0.00000,1.00000,1,  100.0,   201.000,    60.300,   1,1.0000
  4177,'1 ',    43.317,     2.667,    31.950,   -21.600,1.04000,     0,   180.000,   0.00000,   1.00000,   0.00000,   0.00000,1.00000,1,  100.0,   150.000,    45.000,   1,1.0000
  4181,'1 ',    61.771,    42.620,    42.620,   -28.810,1.04000,     0,   240.120,   0.00000,   1.00000,   0.00000,   0.00000,1.00000,1,  100.0,   200.100,    60.030,   1,1.0000
  4183,'1 ',    58.622,    43.240,    43.240,   -29.230,1.03000,     0,   243.600,   0.00000,   1.00000,   0.00000,   0.00000,1.00000,1,  100.0,   203.000,    60.900,   1,1.0000
  4192,'1 ',   462.149,     8.538,   726.490,  -158.450,1.02000,     0,  1712.760,   0.00000,   0.14340,   0.00000,   0.00000,1.00000,1,  100.0,  1427.310,   428.190,   1,1.0000
  4194,'1 ',    58.218,    22.270,    42.940,   -29.030,1.02000,     0,   241.920,   0.00000,   1.00000,   0.00000,   0.00000,1.00000,1,  100.0,   201.600,    60.480,   1,1.0000
  5020,'1 ',    37.045,   -17.280,    25.560,   -17.280,1.00000,     0,   144.000,   0.00000,   1.00000,   0.00000,   0.00000,1.00000,1,  100.0,   120.000,    36.000,   1,1.0000
  5037,'1 ',   222.100,   -34.240,   157.010,   -34.240,1.02000,     0,   370.160,   0.00000,   0.29910,   0.00000,   0.00000,1.00000,1,  100.0,   308.470,    92.540,   1,1.0000
  5038,'1 ',   222.100,   -34.240,   157.010,   -34.240,1.02000,     0,   370.160,   0.00000,   0.12330,   0.00000,   0.00000,1.00000,1,  100.0,   308.470,    92.540,   1,1.0000
  5039,'1 ',   222.100,   -34.240,   157.010,   -34.240,1.02000,     0,   370.160,   0.00000,   0.21470,   0.00000,   0.00000,1.00000,1,  100.0,   308.470,    92.540,   1,1.0000
  5040,'1 ',   222.100,   -34.240,   157.010,   -34.240,1.02000,     0,   370.160,   0.00000,   0.19240,   0.00000,   0.00000,1.00000,1,  100.0,   308.470,    92.540,   1,1.0000
  5041,'1 ',   222.100,   -34.240,   157.010,   -34.240,1.02000,     0,   370.160,   0.00000,   0.11590,   0.00000,   0.00000,1.00000,1,  100.0,   308.470,    92.540,   1,1.0000
  5042,'1 ',   222.100,   -34.240,   157.010,   -34.240,1.02000,     0,   370.160,   0.00000,   0.19130,   0.00000,   0.00000,1.00000,1,  100.0,   308.470,    92.540,   1,1.0000
  5057,'1 ',   184.050,   -35.230,   161.530,   -35.230,1.00000,     0,   380.820,   0.00000,   0.19130,   0.00000,   0.00000,1.00000,1,  100.0,   317.350,    95.200,   1,1.0000
  5058,'1 ',   184.060,   -35.230,   161.530,   -35.230,1.00000,     0,   380.820,   0.00000,   0.29820,   0.00000,   0.00000,1.00000,1,  100.0,   317.350,    95.200,   1,1.0000
  5067,'1 ',   254.200,   -23.156,   223.080,   -48.650,1.03000,     0,   525.920,   0.00000,   0.32610,   0.00000,   0.00000,1.00000,1,  100.0,   438.270,   131.480,   1,1.0000
  5068,'1 ',   254.200,   -23.075,   223.080,   -48.650,1.03000,     0,   525.920,   0.00000,   0.11690,   0.00000,   0.00000,1.00000,1,  100.0,   438.270,   131.480,   1,1.0000
  5069,'1 ',   254.200,   -22.112,   223.080,   -48.650,1.03000,     0,   525.920,   0.00000,   0.10560,   0.00000,   0.00000,1.00000,1,  100.0,   438.270,   131.480,   1,1.0000
  5089,'1 ',    37.876,     9.918,    47.569,    -2.050,1.01000,     0,    50.160,   0.00000,   0.24100,   0.00000,   0.00000,1.00000,1,  100.0,   123.900,     0.000,   1,1.0000
  5166,'1 ',    37.950,    14.669,    64.390,   -14.040,1.04000,     0,   151.800,   0.00000,   0.13910,   0.00000,   0.00000,1.00000,1,  100.0,   126.500,    37.950,   1,1.0000
  5198,'1 ',    46.307,   -21.600,    31.950,   -21.600,1.00000,     0,   180.000,   0.00000,   1.00000,   0.00000,   0.00000,1.00000,1,  100.0,   150.000,    45.000,   1,1.0000
  5206,'1 ',   144.230,   -27.600,   126.570,   -27.600,1.01000,     0,   298.400,   0.00000,   0.11980,   0.00000,   0.00000,1.00000,1,  100.0,   248.670,    74.600,   1,1.0000
  5207,'1 ',   144.230,   -27.600,   126.570,   -27.600,1.01000,     0,   298.400,   0.00000,   0.18090,   0.00000,   0.00000,1.00000,1,  100.0,   248.670,    74.600,   1,1.0000
  5208,'1 ',   144.230,   -27.600,   126.570,   -27.600,1.01000,     0,   298.400,   0.00000,   0.10560,   0.00000,   0.00000,1.00000,1,  100.0,   248.670,    74.600,   1,1.0000
  5238,'1 ',    69.460,   -32.400,    47.930,   -32.400,1.00000,     0,   270.000,   0.00000,   1.00000,   0.00000,   0.00000,1.00000,1,  100.0,   225.000,    67.500,   1,1.0000
  5243,'1 ',    46.307,   -21.600,    31.950,   -21.600,1.00000,     0,   180.000,   0.00000,   1.00000,   0.00000,   0.00000,1.00000,1,  100.0,   150.000,    45.000,   1,1.0000
  5262,'1 ',  1215.000,   -99.630,   447.120,   -99.630,1.01000,     0,  1458.000,   0.00000,   0.26310,   0.00000,   0.00000,1.00000,1,  100.0,  1215.000,   364.500,   1,1.0000
  5263,'1 ',  1215.000,   -99.630,   447.120,   -99.630,1.01000,     0,  1458.000,   0.00000,   0.16260,   0.00000,   0.00000,1.00000,1,  100.0,  1215.000,   364.500,   1,1.0000
  5281,'1 ',    80.320,   -29.720,   136.280,   -29.720,1.00000,     0,   321.280,   0.00000,   0.10660,   0.00000,   0.00000,1.00000,1,  100.0,   267.730,    80.320,   1,1.0000
  5282,'1 ',    80.320,   -29.720,   136.280,   -29.720,1.00000,     0,   321.280,   0.00000,   0.23940,   0.00000,   0.00000,1.00000,1,  100.0,   267.730,    80.320,   1,1.0000
  5283,'1 ',    80.320,   -29.720,   136.280,   -29.720,1.00000,     0,   321.280,   0.00000,   0.10650,   0.00000,   0.00000,1.00000,1,  100.0,   267.730,    80.320,   1,1.0000
  5298,'1 ',    34.500,    46.255,    58.530,   -12.760,1.04000,     0,   138.000,   0.00000,   0.13260,   0.00000,   0.00000,1.00000,1,  100.0,   115.000,    34.500,   1,1.0000
  5299,'1 ',    34.500,    22.334,    58.530,   -12.760,1.04000,     0,   138.000,   0.00000,   0.32280,   0.00000,   0.00000,1.00000,1,  100.0,   115.000,    34.500,   1,1.0000
  5300,'1 ',    34.500,    26.962,    58.530,   -12.760,1.04000,     0,   138.000,   0.00000,   0.21910,   0.00000,   0.00000,1.00000,1,  100.0,   115.000,    34.500,   1,1.0000
...